[TITLE]
Conversion of K709 from 250701 updated by JM&JB
 - manual translation by JB using access
 - pipe names limited to 7 charactors

[JUNCTIONS]
;ID              	Elev        	Demand      	Pattern         
 A2148           	104         	0.0005      	1               	;
 A3007           	97.5        	0           	                	;
 A3018           	94          	0           	1               	;
 A4001           	189         	0           	1               	;
 A4002           	163         	0           	1               	;
 A4112           	146         	0           	1               	;
 A4113           	119         	0           	1               	;
 A4127           	148         	0           	1               	;
 A4189           	109         	0           	1               	;
 A4190           	109         	0           	1               	;
 A4191           	109         	0           	1               	;
 A4195           	109.5       	0           	1               	;
 A4200           	109         	0.0005      	1               	;
 A4227           	108.8       	0.0005      	1               	;
 A5000           	109.55      	0           	1               	;
 A5001           	109.55      	0           	1               	;
 A5003           	107         	0           	1               	;
 A5004           	107         	0           	1               	;
 A5006           	107         	0           	1               	;
 A5008           	107         	0.045       	76              	;
 A5009           	107         	0.01        	1               	;
 A5010           	107.74      	0           	1               	;
 A5011           	107.74      	0           	1               	;
 A5012           	102         	0.0005      	1               	;
 A5013           	102         	0.025       	1               	;
 A5014           	108.67      	0.005       	1               	;
 A5015           	104         	0.015       	1               	;
 A5016           	103         	0           	1               	;
 A5017           	102         	0.005       	1               	;
 A5018           	110.31      	0           	1               	;
 A5019           	104.2       	0.005       	1               	;
 A5020           	104.2       	0           	1               	;
 A5021           	99.4        	0.015       	1               	;
 A5022           	100         	0.005       	1               	;
 A5023           	102         	0.005       	1               	;
 A5024           	102         	0           	1               	;
 A5025           	102         	0.005       	76              	;
 A5026           	102         	0.015       	1               	;
 A5027           	102         	0           	1               	;
 A5028           	102         	0           	1               	;
 A5029           	102         	0.01        	76              	;
 A5030           	103         	0           	1               	;
 A5031           	102         	0.005       	76              	;
 A5032           	103         	0.005       	76              	;
 A5033           	103         	0.01        	76              	;
 A5034           	106         	0.015       	1               	;
 A5035           	109         	0           	1               	;
 A5036           	107         	0           	1               	;
 A5037           	107         	0           	1               	;
 A5038           	106         	0           	1               	;
 A5039           	106         	0.01        	76              	;
 A5040           	104         	0.015       	1               	;
 A5041           	107         	0           	1               	;
 A5042           	107         	0.005       	1               	;
 A5043           	106         	0           	1               	;
 A5044           	106         	0.005       	1               	;
 A5045           	106         	0           	1               	;
 A5046           	106         	0.01        	76              	;
 A5047           	104         	0.005       	1               	;
 A5048           	107         	0.025       	1               	;
 A5049           	106         	0           	1               	;
 A5050           	107         	0           	1               	;
 A5051           	100         	0.005       	76              	;
 A5052           	110.36      	0.01        	76              	;
 A5053           	111         	0           	1               	;
 A5054           	109         	0.005       	1               	;
 A5055           	107         	0           	1               	;
 A5060           	104.5       	0.005       	1               	;
 A5061           	104         	0           	1               	;
 A5063           	104.5       	0.005       	76              	;
 A5064           	105         	0           	1               	;
 A5065           	104         	0.075       	4               	;
 A5066           	106         	0.005       	1               	;
 A5067           	106.9       	0           	1               	;
 A5068           	107         	0           	1               	;
 A5069           	107.3       	0           	1               	;
 A5070           	106.5       	0.005       	1               	;
 A5071           	106.5       	0.005       	1               	;
 A5072           	106.2       	0           	1               	;
 A5073           	106.2       	0           	1               	;
 A5074           	106.2       	0.01        	76              	;
 A5076           	106.5       	0.005       	1               	;
 A5077           	107.5       	0           	1               	;
 A5078           	107.5       	0.06        	4               	;
 A5080           	108.5       	0           	1               	;
 A5081           	107.3       	0.005       	1               	;
 A5082           	106.9       	0           	1               	;
 A5083           	107         	0.04        	76              	;
 A5084           	107         	0.005       	1               	;
 A5085           	107         	0.025       	76              	;
 A5086           	107         	0           	1               	;
 A5087           	107         	0.01        	76              	;
 A5088           	107         	0.01        	4               	;
 A5089           	107         	0.015       	4               	;
 A5090           	107         	0           	1               	;
 A5091           	107         	0.01        	76              	;
 A5092           	107         	0           	1               	;
 A5093           	107         	0.01        	76              	;
 A5094           	107         	0.01        	76              	;
 A5095           	107.5       	0           	1               	;
 A5096           	107.5       	0           	1               	;
 A5097           	107.5       	0.01        	76              	;
 A5098           	108.4       	0           	1               	;
 A5099           	108.4       	0.005       	1               	;
 A5100           	108         	0.01        	1               	;
 A5101           	106.8       	0           	1               	;
 A5102           	111         	0           	1               	;
 A5105           	92          	0.5         	71              	;
 A5145           	104         	0.055       	76              	;
 A5146           	105         	0.005       	1               	;
 A5150           	98.82       	0.01        	1               	;
 A5152           	102.85      	0           	1               	;
 A5153           	103.6       	0.08        	4               	;
 A5154           	104         	0.02        	4               	;
 A5156           	99          	0           	1               	;
 A5158           	99          	0           	1               	;
 A5159           	99          	0           	1               	;
 A5161           	99          	0           	1               	;
 A5163           	99          	0           	1               	;
 A5164           	99          	0           	1               	;
 A5165           	97.5        	0.005       	1               	;
 A5166           	96.6        	0           	1               	;
 A5167           	97.5        	0           	1               	;
 A5168           	97.5        	0           	1               	;
 A5169           	97.5        	0.005       	1               	;
 A5170           	97.5        	0.005       	1               	;
 A5171           	99          	0.595       	4               	;
 A5172           	99          	0.045       	1               	;
 A5173           	99          	0           	1               	;
 A5174           	99          	0.01        	76              	;
 A5175           	99          	0.005       	1               	;
 A5176           	95.59       	0           	1               	;
 A5177           	96.6        	0           	1               	;
 A5178           	99          	0.0005      	1               	;
 A5179           	99          	0           	1               	;
 A5180           	97.5        	0           	1               	;
 A5181           	97.5        	0.005       	1               	;
 A5182           	97          	0           	1               	;
 A5183           	98          	0.01        	1               	;
 A5184           	98          	0.005       	1               	;
 A5185           	98          	0.01        	1               	;
 A5186           	98          	0           	1               	;
 A5187           	97          	0.01        	1               	;
 A5188           	96          	0           	1               	;
 A5189           	97          	0.005       	1               	;
 A5190           	97          	0           	1               	;
 A5191           	97          	0.005       	1               	;
 A5192           	97          	0.005       	1               	;
 A5193           	96.28       	0           	1               	;
 A5194           	96.8        	0.005       	1               	;
 A5195           	96          	0           	1               	;
 A5196           	95          	0           	1               	;
 A5197           	95          	0.01        	1               	;
 A5198           	96          	0.005       	1               	;
 A5199           	97.9        	0           	1               	;
 A5200           	96          	0.005       	1               	;
 A5201           	97.3        	0           	1               	;
 A5202           	96.5        	0.01        	1               	;
 A5203           	96.5        	0.005       	1               	;
 A5204           	96.5        	0           	1               	;
 A5205           	97.5        	0.005       	1               	;
 A5206           	97          	0.005       	1               	;
 A5207           	97          	0           	1               	;
 A5208           	97.5        	0.005       	1               	;
 A5209           	97          	0           	1               	;
 A5214           	97          	0           	1               	;
 A5215           	97          	0           	1               	;
 A5216           	97          	0.005       	76              	;
 A5217           	97          	0           	1               	;
 A5218           	97          	0           	1               	;
 A5219           	97          	0.005       	1               	;
 A5220           	97          	0.005       	1               	;
 A5221           	97          	0.005       	1               	;
 A5222           	98          	0.005       	76              	;
 A5223           	97.5        	0           	1               	;
 A5224           	97          	0           	1               	;
 A5225           	99          	0           	1               	;
 A5226           	99          	0.02        	1               	;
 A5227           	97          	0           	1               	;
 A5229           	97          	0           	1               	;
 A5230           	97          	0.01        	1               	;
 A5231           	97.5        	0           	1               	;
 A5232           	97.5        	0           	1               	;
 A5233           	97          	0.005       	1               	;
 A5234           	97          	0           	1               	;
 A5235           	97.5        	0           	1               	;
 A5237           	97          	0           	1               	;
 A5238           	97          	0.035       	76              	;
 A5239           	97          	0.01        	76              	;
 A5240           	95          	0.01        	1               	;
 A5242           	96          	0.025       	4               	;
 A5243           	96          	0.02        	1               	;
 A5244           	96          	0.015       	1               	;
 A5245           	96          	0.0005      	1               	;
 A5246           	96          	0           	1               	;
 A5247           	96          	0.005       	76              	;
 A5248           	95          	0           	1               	;
 A5249           	94.6        	0.005       	1               	;
 A5250           	94.2        	0           	1               	;
 A5251           	94.2        	0.005       	1               	;
 A5252           	94.2        	0.005       	76              	;
 A5253           	94.2        	0           	1               	;
 A5254           	94.2        	0.005       	1               	;
 A5255           	94          	0.01        	76              	;
 A5256           	93          	0.005       	1               	;
 A5257           	93          	0           	1               	;
 A5259           	92.4        	0           	1               	;
 A5260           	94          	0.01        	76              	;
 A5261           	92.5        	0           	1               	;
 A5262           	93          	0           	1               	;
 A5263           	93          	0.005       	1               	;
 A5264           	93          	0.005       	1               	;
 A5265           	94          	0.005       	76              	;
 A5266           	94.6        	0           	1               	;
 A5267           	94          	0.01        	1               	;
 A5269           	94.6        	0           	1               	;
 A5270           	93          	0           	1               	;
 A5271           	93          	0.075       	76              	;
 A5272           	93          	0.025       	76              	;
 A5273           	93          	0           	1               	;
 A5274           	93          	0           	1               	;
 A5277           	94          	0.01        	4               	;
 A5278           	94          	0           	1               	;
 A5279           	94          	0.0005      	1               	;
 A5280           	92          	0           	1               	;
 A5281           	92          	0           	1               	;
 A5282           	92          	0           	1               	;
 A5283           	92          	0           	1               	;
 A5284           	89          	0           	1               	;
 A5285           	89          	0.055       	76              	;
 A5286           	89          	0           	1               	;
 A5287           	89          	0.045       	4               	;
 A5288           	88          	0           	1               	;
 A5289           	86          	0           	1               	;
 A5290           	86          	0           	1               	;
 A5291           	86          	0           	1               	;
 A5292           	86          	0.005       	1               	;
 A5293           	86          	0           	1               	;
 A5294           	86          	0           	1               	;
 A5295           	90          	0.205       	4               	;
 A5296           	90          	0           	1               	;
 A5297           	90          	0.045       	4               	;
 A5298           	90          	0           	1               	;
 A5299           	89          	0           	1               	;
 A5300           	90          	0.455       	4               	;
 A5301           	90          	0           	1               	;
 A5302           	92          	0           	1               	;
 A5303           	92          	0.005       	1               	;
 A5304           	92.4        	0           	1               	;
 A5305           	92          	0.5         	72              	;
 A5306           	90          	0.0005      	1               	;
 A5307           	89.89       	0           	1               	;
 A5309           	88          	0.02        	4               	;
 A5310           	86.3        	0.005       	1               	;
 A5311           	85.5        	0           	1               	;
 A5312           	85          	0           	1               	;
 A5313           	85          	0.025       	1               	;
 A5315           	84.7        	0.005       	76              	;
 A5316           	85          	0.005       	1               	;
 A5317           	85          	0           	1               	;
 A5318           	85          	0.01        	1               	;
 A5319           	84.27       	0           	1               	;
 A5320           	85          	0.01        	1               	;
 A5321           	86          	0           	1               	;
 A5322           	86          	0           	1               	;
 A5323           	86          	0.0005      	1               	;
 A5324           	86          	0           	1               	;
 A5326           	85          	0.015       	1               	;
 A5327           	85.5        	0           	1               	;
 A5330           	86.22       	0           	1               	;
 A5331           	86.22       	0.015       	1               	;
 A5332           	86          	0           	1               	;
 A5333           	86          	0.01        	1               	;
 A5334           	86          	0           	1               	;
 A5335           	86.3        	0           	1               	;
 A5336           	86.3        	0.02        	4               	;
 A5337           	86.22       	0.005       	1               	;
 A5338           	86.22       	0           	1               	;
 A5339           	86.22       	0           	1               	;
 A5340           	86          	0           	1               	;
 A5341           	85.3        	0           	1               	;
 A5342           	86.3        	0.01        	1               	;
 A5343           	86.3        	0.015       	1               	;
 A5344           	86          	0.005       	1               	;
 A5345           	85.5        	0           	1               	;
 A5346           	86.3        	0           	1               	;
 A5347           	86.3        	0           	1               	;
 A5348           	84.56       	0.035       	76              	;
 A5349           	86.7        	0           	1               	;
 A5350           	86.3        	0           	1               	;
 A5351           	85.74       	0.015       	1               	;
 A5352           	86.71       	0           	1               	;
 A5353           	86          	0           	1               	;
 A5354           	85          	0.01        	1               	;
 A5355           	86.3        	0           	1               	;
 A5356           	87          	0.01        	76              	;
 A5357           	87          	0.005       	1               	;
 A5358           	88.5        	0           	1               	;
 A5359           	88.7        	0           	1               	;
 A5361           	88.7        	0.01        	1               	;
 A5362           	88.5        	0.005       	1               	;
 A5363           	88.5        	0.01        	1               	;
 A5365           	88.5        	0           	1               	;
 A5366           	88          	0.025       	1               	;
 A5368           	89          	0           	1               	;
 A5369           	88          	0.025       	1               	;
 A5372           	86.3        	0           	1               	;
 A5373           	86.3        	0           	1               	;
 A5374           	87.52       	0           	1               	;
 A5375           	87.5        	0.005       	1               	;
 A5376           	87.5        	0.01        	76              	;
 A5377           	87.5        	0.005       	1               	;
 A5378           	87.5        	0           	1               	;
 A5379           	89.6        	0.005       	1               	;
 A5380           	84          	0           	1               	;
 A5381           	84          	0           	1               	;
 A5382           	84          	0           	1               	;
 A5383           	84          	0.01        	76              	;
 A5384           	88.4        	0           	1               	;
 A5385           	90          	0.005       	76              	;
 A5386           	91          	0           	1               	;
 A5387           	93.5        	0.005       	1               	;
 A5388           	96          	0.03        	76              	;
 A5389           	96          	0           	1               	;
 A5390           	97.5        	0.0005      	1               	;
 A5391           	96          	0.005       	76              	;
 A5392           	99          	0.005       	1               	;
 A5393           	98          	0           	1               	;
 A5394           	98          	0.0005      	1               	;
 A5395           	109         	0           	1               	;
 A5396           	99          	0.005       	1               	;
 A5397           	88          	0           	1               	;
 A5398           	88.5        	0.005       	1               	;
 A5399           	88.5        	0           	1               	;
 A5400           	87          	0.01        	1               	;
 A5401           	99          	0           	1               	;
 A5402           	103         	0.005       	1               	;
 A5403           	107         	0           	1               	;
 A5404           	105         	0.01        	76              	;
 A5405           	107         	0           	1               	;
 A5406           	107         	0           	1               	;
 A5407           	110         	0.01        	76              	;
 A5408           	114.3       	0.005       	1               	;
 A5409           	103         	0.005       	1               	;
 A5410           	99          	0           	1               	;
 A5411           	99          	0.005       	1               	;
 A5412           	122         	0.01        	1               	;
 A5413           	96          	0           	1               	;
 A5414           	95          	0.01        	76              	;
 A5415           	95          	0           	1               	;
 A5417           	100.6       	0.05        	4               	;
 A5418           	101         	0.01        	76              	;
 A5419           	106.21      	0           	1               	;
 A5420           	107         	0           	1               	;
 A5421           	107         	0.01        	1               	;
 A5422           	114         	0           	1               	;
 A5423           	107         	0.005       	76              	;
 A5424           	107         	0.005       	1               	;
 A5425           	107         	0           	1               	;
 A5426           	119.29      	0.01        	1               	;
 A5427           	109         	0.005       	1               	;
 A5428           	117         	0.005       	1               	;
 A5429           	110.5       	0           	1               	;
 A5430           	110.5       	0.005       	1               	;
 A5431           	110         	0.005       	1               	;
 A5432           	111         	0           	1               	;
 A5433           	114         	0.01        	1               	;
 A5434           	113         	0           	1               	;
 A5435           	117         	0.01        	1               	;
 A5436           	112         	0.015       	1               	;
 A5437           	110         	0           	1               	;
 A5438           	106         	0.01        	1               	;
 A5439           	97.8        	0           	1               	;
 A5440           	99          	0.01        	76              	;
 A5441           	97          	0.005       	76              	;
 A5442           	94.2        	0.065       	4               	;
 A5443           	96.4        	0.005       	1               	;
 A5444           	101.9       	0           	1               	;
 A5445           	101         	0.005       	1               	;
 A5446           	97          	0           	1               	;
 A5447           	97          	0           	1               	;
 A5448           	98.29       	0           	1               	;
 A5449           	96          	0           	1               	;
 A5450           	95          	0.005       	1               	;
 A5451           	96          	0.005       	1               	;
 A5452           	88.4        	0           	1               	;
 A5453           	88.5        	0           	1               	;
 A5454           	91          	0.015       	4               	;
 A5455           	91          	0.005       	1               	;
 A5456           	91          	0           	1               	;
 A5457           	92          	0.005       	1               	;
 A5458           	93          	0           	1               	;
 A5459           	92          	0           	1               	;
 A5460           	93          	0.5         	70              	;
 A5461           	91.4        	0           	1               	;
 A5462           	92.5        	0.005       	76              	;
 A5466           	89          	0           	1               	;
 A5467           	90.5        	0.045       	4               	;
 A5468           	90.5        	0           	1               	;
 A5469           	89          	0.01        	4               	;
 A5470           	89          	0           	1               	;
 A5471           	89          	0.005       	76              	;
 A5472           	89.4        	0           	1               	;
 A5473           	89          	0.005       	76              	;
 A5474           	86          	0.005       	1               	;
 A5475           	90.5        	0.005       	76              	;
 A5476           	91          	0           	1               	;
 A5477           	90.5        	0.085       	4               	;
 A5478           	90          	0           	1               	;
 A5479           	90          	0           	1               	;
 A5480           	89.5        	0.0005      	1               	;
 A5481           	91          	0.0005      	1               	;
 A5482           	91          	0           	1               	;
 A5483           	91          	0           	1               	;
 A5484           	91          	0           	1               	;
 A5485           	90          	0.005       	1               	;
 A5502           	95.4        	0.09        	76              	;
 A5503           	97.3        	0           	1               	;
 A5509           	96.5        	0           	1               	;
 A5510           	96          	0           	1               	;
 A5511           	96          	0           	1               	;
 A5513           	95.5        	0.005       	1               	;
 A5514           	95.5        	0           	1               	;
 A5515           	97.87       	0.0005      	1               	;
 A5516           	97          	0           	1               	;
 A5517           	97.87       	0           	1               	;
 A5519           	100         	0.0005      	1               	;
 A5520           	94          	0           	1               	;
 A5700           	97          	0           	1               	;
 A5701           	97          	0.01        	1               	;
 A5702           	99          	0           	1               	;
 A5703           	97          	0.005       	1               	;
 A5704           	97.5        	0           	1               	;
 A5705           	97.5        	0           	1               	;
 A5706           	96.6        	0           	1               	;
 A5707           	96          	0           	1               	;
 A5708           	96          	0           	1               	;
 A5709           	93          	0           	1               	;
 A5900           	97          	0           	1               	;
 AN-1865         	100.5       	0           	1               	;
 AN-1866         	98.5        	0           	1               	;
 AN-1868         	85          	0           	1               	;
 AN-1871         	95.4        	0           	1               	;
 N-0455          	98          	0           	0               	;
 N-0457          	106         	0           	0               	;
 N-0458          	100         	0           	0               	;
 N-0459          	110.36      	0           	0               	;
 N-0460          	107         	0           	0               	;
 N-0461          	103         	0           	0               	;
 N-0462          	100         	0           	0               	;
 N-0463          	102         	0           	0               	;
 N-0464          	109         	0           	0               	;
 N-0465          	107         	0           	0               	;
 N-0466          	106         	0           	0               	;
 N-0467          	100         	0           	0               	;
 N-0468          	107         	0           	0               	;
 N-0469          	106         	0           	0               	;
 N-0470          	106         	0           	0               	;
 N-0471          	104         	0           	0               	;
 N-0472          	102         	0           	0               	;
 N-0473          	102         	0           	0               	;
 N-0474          	109         	0           	0               	;
 N-0475          	108.4       	0           	0               	;
 N-0476          	108.8       	0           	0               	;
 N-0477          	107.5       	0           	0               	;